*SPEF "ieee 1481-1999"
*DESIGN "LUT4AB"
*DATE "23:56:56 Thursday September 18, 2025"
*VENDOR "The OpenROAD Project"
*PROGRAM "OpenROAD"
*VERSION "edf00dff99f6c40d67a30c0e22a8191c5d2ed9d6"
*DESIGN_FLOW "NAME_SCOPE LOCAL" "PIN_CAP NONE"
*DIVIDER /
*DELIMITER :
*BUS_DELIMITER []
*T_UNIT 1 NS
*C_UNIT 1 PF
*R_UNIT 1 OHM
*L_UNIT 1 HENRY

*NAME_MAP
*1 Ci
*2 Co
*3 E1BEG[0]
*4 E1BEG[1]
*5 E1BEG[2]
*6 E1BEG[3]
*7 E1END[0]
*8 E1END[1]
*9 E1END[2]
*10 E1END[3]
*11 E2BEG[0]
*12 E2BEG[1]
*13 E2BEG[2]
*14 E2BEG[3]
*15 E2BEG[4]
*16 E2BEG[5]
*17 E2BEG[6]
*18 E2BEG[7]
*19 E2BEGb[0]
*20 E2BEGb[1]
*21 E2BEGb[2]
*22 E2BEGb[3]
*23 E2BEGb[4]
*24 E2BEGb[5]
*25 E2BEGb[6]
*26 E2BEGb[7]
*27 E2END[0]
*28 E2END[1]
*29 E2END[2]
*30 E2END[3]
*31 E2END[4]
*32 E2END[5]
*33 E2END[6]
*34 E2END[7]
*35 E2MID[0]
*36 E2MID[1]
*37 E2MID[2]
*38 E2MID[3]
*39 E2MID[4]
*40 E2MID[5]
*41 E2MID[6]
*42 E2MID[7]
*43 E6BEG[0]
*44 E6BEG[10]
*45 E6BEG[11]
*46 E6BEG[1]
*47 E6BEG[2]
*48 E6BEG[3]
*49 E6BEG[4]
*50 E6BEG[5]
*51 E6BEG[6]
*52 E6BEG[7]
*53 E6BEG[8]
*54 E6BEG[9]
*55 E6END[0]
*56 E6END[10]
*57 E6END[11]
*58 E6END[1]
*59 E6END[2]
*60 E6END[3]
*61 E6END[4]
*62 E6END[5]
*63 E6END[6]
*64 E6END[7]
*65 E6END[8]
*66 E6END[9]
*67 EE4BEG[0]
*68 EE4BEG[10]
*69 EE4BEG[11]
*70 EE4BEG[12]
*71 EE4BEG[13]
*72 EE4BEG[14]
*73 EE4BEG[15]
*74 EE4BEG[1]
*75 EE4BEG[2]
*76 EE4BEG[3]
*77 EE4BEG[4]
*78 EE4BEG[5]
*79 EE4BEG[6]
*80 EE4BEG[7]
*81 EE4BEG[8]
*82 EE4BEG[9]
*83 EE4END[0]
*84 EE4END[10]
*85 EE4END[11]
*86 EE4END[12]
*87 EE4END[13]
*88 EE4END[14]
*89 EE4END[15]
*90 EE4END[1]
*91 EE4END[2]
*92 EE4END[3]
*93 EE4END[4]
*94 EE4END[5]
*95 EE4END[6]
*96 EE4END[7]
*97 EE4END[8]
*98 EE4END[9]
*99 FrameData[0]
*100 FrameData[10]
*101 FrameData[11]
*102 FrameData[12]
*103 FrameData[13]
*104 FrameData[14]
*105 FrameData[15]
*106 FrameData[16]
*107 FrameData[17]
*108 FrameData[18]
*109 FrameData[19]
*110 FrameData[1]
*111 FrameData[20]
*112 FrameData[21]
*113 FrameData[22]
*114 FrameData[23]
*115 FrameData[24]
*116 FrameData[25]
*117 FrameData[26]
*118 FrameData[27]
*119 FrameData[28]
*120 FrameData[29]
*121 FrameData[2]
*122 FrameData[30]
*123 FrameData[31]
*124 FrameData[3]
*125 FrameData[4]
*126 FrameData[5]
*127 FrameData[6]
*128 FrameData[7]
*129 FrameData[8]
*130 FrameData[9]
*131 FrameData_O[0]
*132 FrameData_O[10]
*133 FrameData_O[11]
*134 FrameData_O[12]
*135 FrameData_O[13]
*136 FrameData_O[14]
*137 FrameData_O[15]
*138 FrameData_O[16]
*139 FrameData_O[17]
*140 FrameData_O[18]
*141 FrameData_O[19]
*142 FrameData_O[1]
*143 FrameData_O[20]
*144 FrameData_O[21]
*145 FrameData_O[22]
*146 FrameData_O[23]
*147 FrameData_O[24]
*148 FrameData_O[25]
*149 FrameData_O[26]
*150 FrameData_O[27]
*151 FrameData_O[28]
*152 FrameData_O[29]
*153 FrameData_O[2]
*154 FrameData_O[30]
*155 FrameData_O[31]
*156 FrameData_O[3]
*157 FrameData_O[4]
*158 FrameData_O[5]
*159 FrameData_O[6]
*160 FrameData_O[7]
*161 FrameData_O[8]
*162 FrameData_O[9]
*163 FrameStrobe[0]
*164 FrameStrobe[10]
*165 FrameStrobe[11]
*166 FrameStrobe[12]
*167 FrameStrobe[13]
*168 FrameStrobe[14]
*169 FrameStrobe[15]
*170 FrameStrobe[16]
*171 FrameStrobe[17]
*172 FrameStrobe[18]
*173 FrameStrobe[19]
*174 FrameStrobe[1]
*175 FrameStrobe[2]
*176 FrameStrobe[3]
*177 FrameStrobe[4]
*178 FrameStrobe[5]
*179 FrameStrobe[6]
*180 FrameStrobe[7]
*181 FrameStrobe[8]
*182 FrameStrobe[9]
*183 FrameStrobe_O[0]
*184 FrameStrobe_O[10]
*185 FrameStrobe_O[11]
*186 FrameStrobe_O[12]
*187 FrameStrobe_O[13]
*188 FrameStrobe_O[14]
*189 FrameStrobe_O[15]
*190 FrameStrobe_O[16]
*191 FrameStrobe_O[17]
*192 FrameStrobe_O[18]
*193 FrameStrobe_O[19]
*194 FrameStrobe_O[1]
*195 FrameStrobe_O[2]
*196 FrameStrobe_O[3]
*197 FrameStrobe_O[4]
*198 FrameStrobe_O[5]
*199 FrameStrobe_O[6]
*200 FrameStrobe_O[7]
*201 FrameStrobe_O[8]
*202 FrameStrobe_O[9]
*203 N1BEG[0]
*204 N1BEG[1]
*205 N1BEG[2]
*206 N1BEG[3]
*207 N1END[0]
*208 N1END[1]
*209 N1END[2]
*210 N1END[3]
*211 N2BEG[0]
*212 N2BEG[1]
*213 N2BEG[2]
*214 N2BEG[3]
*215 N2BEG[4]
*216 N2BEG[5]
*217 N2BEG[6]
*218 N2BEG[7]
*219 N2BEGb[0]
*220 N2BEGb[1]
*221 N2BEGb[2]
*222 N2BEGb[3]
*223 N2BEGb[4]
*224 N2BEGb[5]
*225 N2BEGb[6]
*226 N2BEGb[7]
*227 N2END[0]
*228 N2END[1]
*229 N2END[2]
*230 N2END[3]
*231 N2END[4]
*232 N2END[5]
*233 N2END[6]
*234 N2END[7]
*235 N2MID[0]
*236 N2MID[1]
*237 N2MID[2]
*238 N2MID[3]
*239 N2MID[4]
*240 N2MID[5]
*241 N2MID[6]
*242 N2MID[7]
*243 N4BEG[0]
*244 N4BEG[10]
*245 N4BEG[11]
*246 N4BEG[12]
*247 N4BEG[13]
*248 N4BEG[14]
*249 N4BEG[15]
*250 N4BEG[1]
*251 N4BEG[2]
*252 N4BEG[3]
*253 N4BEG[4]
*254 N4BEG[5]
*255 N4BEG[6]
*256 N4BEG[7]
*257 N4BEG[8]
*258 N4BEG[9]
*259 N4END[0]
*260 N4END[10]
*261 N4END[11]
*262 N4END[12]
*263 N4END[13]
*264 N4END[14]
*265 N4END[15]
*266 N4END[1]
*267 N4END[2]
*268 N4END[3]
*269 N4END[4]
*270 N4END[5]
*271 N4END[6]
*272 N4END[7]
*273 N4END[8]
*274 N4END[9]
*275 NN4BEG[0]
*276 NN4BEG[10]
*277 NN4BEG[11]
*278 NN4BEG[12]
*279 NN4BEG[13]
*280 NN4BEG[14]
*281 NN4BEG[15]
*282 NN4BEG[1]
*283 NN4BEG[2]
*284 NN4BEG[3]
*285 NN4BEG[4]
*286 NN4BEG[5]
*287 NN4BEG[6]
*288 NN4BEG[7]
*289 NN4BEG[8]
*290 NN4BEG[9]
*291 NN4END[0]
*292 NN4END[10]
*293 NN4END[11]
*294 NN4END[12]
*295 NN4END[13]
*296 NN4END[14]
*297 NN4END[15]
*298 NN4END[1]
*299 NN4END[2]
*300 NN4END[3]
*301 NN4END[4]
*302 NN4END[5]
*303 NN4END[6]
*304 NN4END[7]
*305 NN4END[8]
*306 NN4END[9]
*307 S1BEG[0]
*308 S1BEG[1]
*309 S1BEG[2]
*310 S1BEG[3]
*311 S1END[0]
*312 S1END[1]
*313 S1END[2]
*314 S1END[3]
*315 S2BEG[0]
*316 S2BEG[1]
*317 S2BEG[2]
*318 S2BEG[3]
*319 S2BEG[4]
*320 S2BEG[5]
*321 S2BEG[6]
*322 S2BEG[7]
*323 S2BEGb[0]
*324 S2BEGb[1]
*325 S2BEGb[2]
*326 S2BEGb[3]
*327 S2BEGb[4]
*328 S2BEGb[5]
*329 S2BEGb[6]
*330 S2BEGb[7]
*331 S2END[0]
*332 S2END[1]
*333 S2END[2]
*334 S2END[3]
*335 S2END[4]
*336 S2END[5]
*337 S2END[6]
*338 S2END[7]
*339 S2MID[0]
*340 S2MID[1]
*341 S2MID[2]
*342 S2MID[3]
*343 S2MID[4]
*344 S2MID[5]
*345 S2MID[6]
*346 S2MID[7]
*347 S4BEG[0]
*348 S4BEG[10]
*349 S4BEG[11]
*350 S4BEG[12]
*351 S4BEG[13]
*352 S4BEG[14]
*353 S4BEG[15]
*354 S4BEG[1]
*355 S4BEG[2]
*356 S4BEG[3]
*357 S4BEG[4]
*358 S4BEG[5]
*359 S4BEG[6]
*360 S4BEG[7]
*361 S4BEG[8]
*362 S4BEG[9]
*363 S4END[0]
*364 S4END[10]
*365 S4END[11]
*366 S4END[12]
*367 S4END[13]
*368 S4END[14]
*369 S4END[15]
*370 S4END[1]
*371 S4END[2]
*372 S4END[3]
*373 S4END[4]
*374 S4END[5]
*375 S4END[6]
*376 S4END[7]
*377 S4END[8]
*378 S4END[9]
*379 SS4BEG[0]
*380 SS4BEG[10]
*381 SS4BEG[11]
*382 SS4BEG[12]
*383 SS4BEG[13]
*384 SS4BEG[14]
*385 SS4BEG[15]
*386 SS4BEG[1]
*387 SS4BEG[2]
*388 SS4BEG[3]
*389 SS4BEG[4]
*390 SS4BEG[5]
*391 SS4BEG[6]
*392 SS4BEG[7]
*393 SS4BEG[8]
*394 SS4BEG[9]
*395 SS4END[0]
*396 SS4END[10]
*397 SS4END[11]
*398 SS4END[12]
*399 SS4END[13]
*400 SS4END[14]
*401 SS4END[15]
*402 SS4END[1]
*403 SS4END[2]
*404 SS4END[3]
*405 SS4END[4]
*406 SS4END[5]
*407 SS4END[6]
*408 SS4END[7]
*409 SS4END[8]
*410 SS4END[9]
*411 UserCLK
*412 UserCLKo
*415 W1BEG[0]
*416 W1BEG[1]
*417 W1BEG[2]
*418 W1BEG[3]
*419 W1END[0]
*420 W1END[1]
*421 W1END[2]
*422 W1END[3]
*423 W2BEG[0]
*424 W2BEG[1]
*425 W2BEG[2]
*426 W2BEG[3]
*427 W2BEG[4]
*428 W2BEG[5]
*429 W2BEG[6]
*430 W2BEG[7]
*431 W2BEGb[0]
*432 W2BEGb[1]
*433 W2BEGb[2]
*434 W2BEGb[3]
*435 W2BEGb[4]
*436 W2BEGb[5]
*437 W2BEGb[6]
*438 W2BEGb[7]
*439 W2END[0]
*440 W2END[1]
*441 W2END[2]
*442 W2END[3]
*443 W2END[4]
*444 W2END[5]
*445 W2END[6]
*446 W2END[7]
*447 W2MID[0]
*448 W2MID[1]
*449 W2MID[2]
*450 W2MID[3]
*451 W2MID[4]
*452 W2MID[5]
*453 W2MID[6]
*454 W2MID[7]
*455 W6BEG[0]
*456 W6BEG[10]
*457 W6BEG[11]
*458 W6BEG[1]
*459 W6BEG[2]
*460 W6BEG[3]
*461 W6BEG[4]
*462 W6BEG[5]
*463 W6BEG[6]
*464 W6BEG[7]
*465 W6BEG[8]
*466 W6BEG[9]
*467 W6END[0]
*468 W6END[10]
*469 W6END[11]
*470 W6END[1]
*471 W6END[2]
*472 W6END[3]
*473 W6END[4]
*474 W6END[5]
*475 W6END[6]
*476 W6END[7]
*477 W6END[8]
*478 W6END[9]
*479 WW4BEG[0]
*480 WW4BEG[10]
*481 WW4BEG[11]
*482 WW4BEG[12]
*483 WW4BEG[13]
*484 WW4BEG[14]
*485 WW4BEG[15]
*486 WW4BEG[1]
*487 WW4BEG[2]
*488 WW4BEG[3]
*489 WW4BEG[4]
*490 WW4BEG[5]
*491 WW4BEG[6]
*492 WW4BEG[7]
*493 WW4BEG[8]
*494 WW4BEG[9]
*495 WW4END[0]
*496 WW4END[10]
*497 WW4END[11]
*498 WW4END[12]
*499 WW4END[13]
*500 WW4END[14]
*501 WW4END[15]
*502 WW4END[1]
*503 WW4END[2]
*504 WW4END[3]
*505 WW4END[4]
*506 WW4END[5]
*507 WW4END[6]
*508 WW4END[7]
*509 WW4END[8]
*510 WW4END[9]
*511 A
*512 B
*513 C
*514 D
*515 E
*516 F
*517 G
*518 H
*519 Inst_LA_LUT4c_frame_config_dffesr\.LUT_flop
*520 Inst_LA_LUT4c_frame_config_dffesr\.c_I0mux
*521 Inst_LA_LUT4c_frame_config_dffesr\.c_out_mux
*522 Inst_LA_LUT4c_frame_config_dffesr\.c_reset_value
*523 Inst_LA_LUT4c_frame_config_dffesr\.inst_cus_mux161_buf\.A0
*524 Inst_LA_LUT4c_frame_config_dffesr\.inst_cus_mux161_buf\.A1
*525 Inst_LA_LUT4c_frame_config_dffesr\.inst_cus_mux161_buf\.A10
*526 Inst_LA_LUT4c_frame_config_dffesr\.inst_cus_mux161_buf\.A11
*527 Inst_LA_LUT4c_frame_config_dffesr\.inst_cus_mux161_buf\.A12
*528 Inst_LA_LUT4c_frame_config_dffesr\.inst_cus_mux161_buf\.A13
*529 Inst_LA_LUT4c_frame_config_dffesr\.inst_cus_mux161_buf\.A14
*530 Inst_LA_LUT4c_frame_config_dffesr\.inst_cus_mux161_buf\.A15
*531 Inst_LA_LUT4c_frame_config_dffesr\.inst_cus_mux161_buf\.A2
*532 Inst_LA_LUT4c_frame_config_dffesr\.inst_cus_mux161_buf\.A3
*533 Inst_LA_LUT4c_frame_config_dffesr\.inst_cus_mux161_buf\.A4
*534 Inst_LA_LUT4c_frame_config_dffesr\.inst_cus_mux161_buf\.A5
*535 Inst_LA_LUT4c_frame_config_dffesr\.inst_cus_mux161_buf\.A6
*536 Inst_LA_LUT4c_frame_config_dffesr\.inst_cus_mux161_buf\.A7
*537 Inst_LA_LUT4c_frame_config_dffesr\.inst_cus_mux161_buf\.A8
*538 Inst_LA_LUT4c_frame_config_dffesr\.inst_cus_mux161_buf\.A9
*539 Inst_LB_LUT4c_frame_config_dffesr\.LUT_flop
*540 Inst_LB_LUT4c_frame_config_dffesr\.c_I0mux
*541 Inst_LB_LUT4c_frame_config_dffesr\.c_out_mux
*542 Inst_LB_LUT4c_frame_config_dffesr\.c_reset_value
*543 Inst_LB_LUT4c_frame_config_dffesr\.inst_cus_mux161_buf\.A0
*544 Inst_LB_LUT4c_frame_config_dffesr\.inst_cus_mux161_buf\.A1
*545 Inst_LB_LUT4c_frame_config_dffesr\.inst_cus_mux161_buf\.A10
*546 Inst_LB_LUT4c_frame_config_dffesr\.inst_cus_mux161_buf\.A11
*547 Inst_LB_LUT4c_frame_config_dffesr\.inst_cus_mux161_buf\.A12
*548 Inst_LB_LUT4c_frame_config_dffesr\.inst_cus_mux161_buf\.A13
*549 Inst_LB_LUT4c_frame_config_dffesr\.inst_cus_mux161_buf\.A14
*550 Inst_LB_LUT4c_frame_config_dffesr\.inst_cus_mux161_buf\.A15
*551 Inst_LB_LUT4c_frame_config_dffesr\.inst_cus_mux161_buf\.A2
*552 Inst_LB_LUT4c_frame_config_dffesr\.inst_cus_mux161_buf\.A3
*553 Inst_LB_LUT4c_frame_config_dffesr\.inst_cus_mux161_buf\.A4
*554 Inst_LB_LUT4c_frame_config_dffesr\.inst_cus_mux161_buf\.A5
*555 Inst_LB_LUT4c_frame_config_dffesr\.inst_cus_mux161_buf\.A6
*556 Inst_LB_LUT4c_frame_config_dffesr\.inst_cus_mux161_buf\.A7
*557 Inst_LB_LUT4c_frame_config_dffesr\.inst_cus_mux161_buf\.A8
*558 Inst_LB_LUT4c_frame_config_dffesr\.inst_cus_mux161_buf\.A9
*559 Inst_LC_LUT4c_frame_config_dffesr\.LUT_flop
*560 Inst_LC_LUT4c_frame_config_dffesr\.c_I0mux
*561 Inst_LC_LUT4c_frame_config_dffesr\.c_out_mux
*562 Inst_LC_LUT4c_frame_config_dffesr\.c_reset_value
*563 Inst_LC_LUT4c_frame_config_dffesr\.inst_cus_mux161_buf\.A0
*564 Inst_LC_LUT4c_frame_config_dffesr\.inst_cus_mux161_buf\.A1
*565 Inst_LC_LUT4c_frame_config_dffesr\.inst_cus_mux161_buf\.A10
*566 Inst_LC_LUT4c_frame_config_dffesr\.inst_cus_mux161_buf\.A11
*567 Inst_LC_LUT4c_frame_config_dffesr\.inst_cus_mux161_buf\.A12
*568 Inst_LC_LUT4c_frame_config_dffesr\.inst_cus_mux161_buf\.A13
*569 Inst_LC_LUT4c_frame_config_dffesr\.inst_cus_mux161_buf\.A14
*570 Inst_LC_LUT4c_frame_config_dffesr\.inst_cus_mux161_buf\.A15
*571 Inst_LC_LUT4c_frame_config_dffesr\.inst_cus_mux161_buf\.A2
*572 Inst_LC_LUT4c_frame_config_dffesr\.inst_cus_mux161_buf\.A3
*573 Inst_LC_LUT4c_frame_config_dffesr\.inst_cus_mux161_buf\.A4
*574 Inst_LC_LUT4c_frame_config_dffesr\.inst_cus_mux161_buf\.A5
*575 Inst_LC_LUT4c_frame_config_dffesr\.inst_cus_mux161_buf\.A6
*576 Inst_LC_LUT4c_frame_config_dffesr\.inst_cus_mux161_buf\.A7
*577 Inst_LC_LUT4c_frame_config_dffesr\.inst_cus_mux161_buf\.A8
*578 Inst_LC_LUT4c_frame_config_dffesr\.inst_cus_mux161_buf\.A9
*579 Inst_LD_LUT4c_frame_config_dffesr\.LUT_flop
*580 Inst_LD_LUT4c_frame_config_dffesr\.c_I0mux
*581 Inst_LD_LUT4c_frame_config_dffesr\.c_out_mux
*582 Inst_LD_LUT4c_frame_config_dffesr\.c_reset_value
*583 Inst_LD_LUT4c_frame_config_dffesr\.inst_cus_mux161_buf\.A0
*584 Inst_LD_LUT4c_frame_config_dffesr\.inst_cus_mux161_buf\.A1
*585 Inst_LD_LUT4c_frame_config_dffesr\.inst_cus_mux161_buf\.A10
*586 Inst_LD_LUT4c_frame_config_dffesr\.inst_cus_mux161_buf\.A11
*587 Inst_LD_LUT4c_frame_config_dffesr\.inst_cus_mux161_buf\.A12
*588 Inst_LD_LUT4c_frame_config_dffesr\.inst_cus_mux161_buf\.A13
*589 Inst_LD_LUT4c_frame_config_dffesr\.inst_cus_mux161_buf\.A14
*590 Inst_LD_LUT4c_frame_config_dffesr\.inst_cus_mux161_buf\.A15
*591 Inst_LD_LUT4c_frame_config_dffesr\.inst_cus_mux161_buf\.A2
*592 Inst_LD_LUT4c_frame_config_dffesr\.inst_cus_mux161_buf\.A3
*593 Inst_LD_LUT4c_frame_config_dffesr\.inst_cus_mux161_buf\.A4
*594 Inst_LD_LUT4c_frame_config_dffesr\.inst_cus_mux161_buf\.A5
*595 Inst_LD_LUT4c_frame_config_dffesr\.inst_cus_mux161_buf\.A6
*596 Inst_LD_LUT4c_frame_config_dffesr\.inst_cus_mux161_buf\.A7
*597 Inst_LD_LUT4c_frame_config_dffesr\.inst_cus_mux161_buf\.A8
*598 Inst_LD_LUT4c_frame_config_dffesr\.inst_cus_mux161_buf\.A9
*599 Inst_LE_LUT4c_frame_config_dffesr\.LUT_flop
*600 Inst_LE_LUT4c_frame_config_dffesr\.c_I0mux
*601 Inst_LE_LUT4c_frame_config_dffesr\.c_out_mux
*602 Inst_LE_LUT4c_frame_config_dffesr\.c_reset_value
*603 Inst_LE_LUT4c_frame_config_dffesr\.inst_cus_mux161_buf\.A0
*604 Inst_LE_LUT4c_frame_config_dffesr\.inst_cus_mux161_buf\.A1
*605 Inst_LE_LUT4c_frame_config_dffesr\.inst_cus_mux161_buf\.A10
*606 Inst_LE_LUT4c_frame_config_dffesr\.inst_cus_mux161_buf\.A11
*607 Inst_LE_LUT4c_frame_config_dffesr\.inst_cus_mux161_buf\.A12
*608 Inst_LE_LUT4c_frame_config_dffesr\.inst_cus_mux161_buf\.A13
*609 Inst_LE_LUT4c_frame_config_dffesr\.inst_cus_mux161_buf\.A14
*610 Inst_LE_LUT4c_frame_config_dffesr\.inst_cus_mux161_buf\.A15
*611 Inst_LE_LUT4c_frame_config_dffesr\.inst_cus_mux161_buf\.A2
*612 Inst_LE_LUT4c_frame_config_dffesr\.inst_cus_mux161_buf\.A3
*613 Inst_LE_LUT4c_frame_config_dffesr\.inst_cus_mux161_buf\.A4
*614 Inst_LE_LUT4c_frame_config_dffesr\.inst_cus_mux161_buf\.A5
*615 Inst_LE_LUT4c_frame_config_dffesr\.inst_cus_mux161_buf\.A6
*616 Inst_LE_LUT4c_frame_config_dffesr\.inst_cus_mux161_buf\.A7
*617 Inst_LE_LUT4c_frame_config_dffesr\.inst_cus_mux161_buf\.A8
*618 Inst_LE_LUT4c_frame_config_dffesr\.inst_cus_mux161_buf\.A9
*619 Inst_LF_LUT4c_frame_config_dffesr\.LUT_flop
*620 Inst_LF_LUT4c_frame_config_dffesr\.c_I0mux
*621 Inst_LF_LUT4c_frame_config_dffesr\.c_out_mux
*622 Inst_LF_LUT4c_frame_config_dffesr\.c_reset_value
*623 Inst_LF_LUT4c_frame_config_dffesr\.inst_cus_mux161_buf\.A0
*624 Inst_LF_LUT4c_frame_config_dffesr\.inst_cus_mux161_buf\.A1
*625 Inst_LF_LUT4c_frame_config_dffesr\.inst_cus_mux161_buf\.A10
*626 Inst_LF_LUT4c_frame_config_dffesr\.inst_cus_mux161_buf\.A11
*627 Inst_LF_LUT4c_frame_config_dffesr\.inst_cus_mux161_buf\.A12
*628 Inst_LF_LUT4c_frame_config_dffesr\.inst_cus_mux161_buf\.A13
*629 Inst_LF_LUT4c_frame_config_dffesr\.inst_cus_mux161_buf\.A14
*630 Inst_LF_LUT4c_frame_config_dffesr\.inst_cus_mux161_buf\.A15
*631 Inst_LF_LUT4c_frame_config_dffesr\.inst_cus_mux161_buf\.A2
*632 Inst_LF_LUT4c_frame_config_dffesr\.inst_cus_mux161_buf\.A3
*633 Inst_LF_LUT4c_frame_config_dffesr\.inst_cus_mux161_buf\.A4
*634 Inst_LF_LUT4c_frame_config_dffesr\.inst_cus_mux161_buf\.A5
*635 Inst_LF_LUT4c_frame_config_dffesr\.inst_cus_mux161_buf\.A6
*636 Inst_LF_LUT4c_frame_config_dffesr\.inst_cus_mux161_buf\.A7
*637 Inst_LF_LUT4c_frame_config_dffesr\.inst_cus_mux161_buf\.A8
*638 Inst_LF_LUT4c_frame_config_dffesr\.inst_cus_mux161_buf\.A9
*639 Inst_LG_LUT4c_frame_config_dffesr\.LUT_flop
*640 Inst_LG_LUT4c_frame_config_dffesr\.c_I0mux
*641 Inst_LG_LUT4c_frame_config_dffesr\.c_out_mux
*642 Inst_LG_LUT4c_frame_config_dffesr\.c_reset_value
*643 Inst_LG_LUT4c_frame_config_dffesr\.inst_cus_mux161_buf\.A0
*644 Inst_LG_LUT4c_frame_config_dffesr\.inst_cus_mux161_buf\.A1
*645 Inst_LG_LUT4c_frame_config_dffesr\.inst_cus_mux161_buf\.A10
*646 Inst_LG_LUT4c_frame_config_dffesr\.inst_cus_mux161_buf\.A11
*647 Inst_LG_LUT4c_frame_config_dffesr\.inst_cus_mux161_buf\.A12
*648 Inst_LG_LUT4c_frame_config_dffesr\.inst_cus_mux161_buf\.A13
*649 Inst_LG_LUT4c_frame_config_dffesr\.inst_cus_mux161_buf\.A14
*650 Inst_LG_LUT4c_frame_config_dffesr\.inst_cus_mux161_buf\.A15
*651 Inst_LG_LUT4c_frame_config_dffesr\.inst_cus_mux161_buf\.A2
*652 Inst_LG_LUT4c_frame_config_dffesr\.inst_cus_mux161_buf\.A3
*653 Inst_LG_LUT4c_frame_config_dffesr\.inst_cus_mux161_buf\.A4
*654 Inst_LG_LUT4c_frame_config_dffesr\.inst_cus_mux161_buf\.A5
*655 Inst_LG_LUT4c_frame_config_dffesr\.inst_cus_mux161_buf\.A6
*656 Inst_LG_LUT4c_frame_config_dffesr\.inst_cus_mux161_buf\.A7
*657 Inst_LG_LUT4c_frame_config_dffesr\.inst_cus_mux161_buf\.A8
*658 Inst_LG_LUT4c_frame_config_dffesr\.inst_cus_mux161_buf\.A9
*659 Inst_LH_LUT4c_frame_config_dffesr\.LUT_flop
*660 Inst_LH_LUT4c_frame_config_dffesr\.c_I0mux
*661 Inst_LH_LUT4c_frame_config_dffesr\.c_out_mux
*662 Inst_LH_LUT4c_frame_config_dffesr\.c_reset_value
*663 Inst_LH_LUT4c_frame_config_dffesr\.inst_cus_mux161_buf\.A0
*664 Inst_LH_LUT4c_frame_config_dffesr\.inst_cus_mux161_buf\.A1
*665 Inst_LH_LUT4c_frame_config_dffesr\.inst_cus_mux161_buf\.A10
*666 Inst_LH_LUT4c_frame_config_dffesr\.inst_cus_mux161_buf\.A11
*667 Inst_LH_LUT4c_frame_config_dffesr\.inst_cus_mux161_buf\.A12
*668 Inst_LH_LUT4c_frame_config_dffesr\.inst_cus_mux161_buf\.A13
*669 Inst_LH_LUT4c_frame_config_dffesr\.inst_cus_mux161_buf\.A14
*670 Inst_LH_LUT4c_frame_config_dffesr\.inst_cus_mux161_buf\.A15
*671 Inst_LH_LUT4c_frame_config_dffesr\.inst_cus_mux161_buf\.A2
*672 Inst_LH_LUT4c_frame_config_dffesr\.inst_cus_mux161_buf\.A3
*673 Inst_LH_LUT4c_frame_config_dffesr\.inst_cus_mux161_buf\.A4
*674 Inst_LH_LUT4c_frame_config_dffesr\.inst_cus_mux161_buf\.A5
*675 Inst_LH_LUT4c_frame_config_dffesr\.inst_cus_mux161_buf\.A6
*676 Inst_LH_LUT4c_frame_config_dffesr\.inst_cus_mux161_buf\.A7
*677 Inst_LH_LUT4c_frame_config_dffesr\.inst_cus_mux161_buf\.A8
*678 Inst_LH_LUT4c_frame_config_dffesr\.inst_cus_mux161_buf\.A9
*679 Inst_LUT4AB_ConfigMem\.Inst_Frame0_bit0\.Q
*680 Inst_LUT4AB_ConfigMem\.Inst_Frame0_bit1\.Q
*681 Inst_LUT4AB_ConfigMem\.Inst_Frame0_bit10\.Q
*682 Inst_LUT4AB_ConfigMem\.Inst_Frame0_bit11\.Q
*683 Inst_LUT4AB_ConfigMem\.Inst_Frame0_bit12\.Q
*684 Inst_LUT4AB_ConfigMem\.Inst_Frame0_bit13\.Q
*685 Inst_LUT4AB_ConfigMem\.Inst_Frame0_bit14\.Q
*686 Inst_LUT4AB_ConfigMem\.Inst_Frame0_bit15\.Q
*687 Inst_LUT4AB_ConfigMem\.Inst_Frame0_bit16\.Q
*688 Inst_LUT4AB_ConfigMem\.Inst_Frame0_bit17\.Q
*689 Inst_LUT4AB_ConfigMem\.Inst_Frame0_bit18\.Q
*690 Inst_LUT4AB_ConfigMem\.Inst_Frame0_bit19\.Q
*691 Inst_LUT4AB_ConfigMem\.Inst_Frame0_bit20\.Q
*692 Inst_LUT4AB_ConfigMem\.Inst_Frame0_bit21\.Q
*693 Inst_LUT4AB_ConfigMem\.Inst_Frame0_bit22\.Q
*694 Inst_LUT4AB_ConfigMem\.Inst_Frame0_bit23\.Q
*695 Inst_LUT4AB_ConfigMem\.Inst_Frame0_bit24\.Q
*696 Inst_LUT4AB_ConfigMem\.Inst_Frame0_bit3\.Q
*697 Inst_LUT4AB_ConfigMem\.Inst_Frame0_bit4\.Q
*698 Inst_LUT4AB_ConfigMem\.Inst_Frame0_bit5\.Q
*699 Inst_LUT4AB_ConfigMem\.Inst_Frame0_bit6\.Q
*700 Inst_LUT4AB_ConfigMem\.Inst_Frame0_bit7\.Q
*701 Inst_LUT4AB_ConfigMem\.Inst_Frame0_bit8\.Q
*702 Inst_LUT4AB_ConfigMem\.Inst_Frame0_bit9\.Q
*703 Inst_LUT4AB_ConfigMem\.Inst_Frame10_bit0\.Q
*704 Inst_LUT4AB_ConfigMem\.Inst_Frame10_bit1\.Q
*705 Inst_LUT4AB_ConfigMem\.Inst_Frame10_bit10\.Q
*706 Inst_LUT4AB_ConfigMem\.Inst_Frame10_bit11\.Q
*707 Inst_LUT4AB_ConfigMem\.Inst_Frame10_bit12\.Q
*708 Inst_LUT4AB_ConfigMem\.Inst_Frame10_bit13\.Q
*709 Inst_LUT4AB_ConfigMem\.Inst_Frame10_bit2\.Q
*710 Inst_LUT4AB_ConfigMem\.Inst_Frame10_bit21\.Q
*711 Inst_LUT4AB_ConfigMem\.Inst_Frame10_bit22\.Q
*712 Inst_LUT4AB_ConfigMem\.Inst_Frame10_bit23\.Q
*713 Inst_LUT4AB_ConfigMem\.Inst_Frame10_bit24\.Q
*714 Inst_LUT4AB_ConfigMem\.Inst_Frame10_bit25\.Q
*715 Inst_LUT4AB_ConfigMem\.Inst_Frame10_bit26\.Q
*716 Inst_LUT4AB_ConfigMem\.Inst_Frame10_bit27\.Q
*717 Inst_LUT4AB_ConfigMem\.Inst_Frame10_bit28\.Q
*718 Inst_LUT4AB_ConfigMem\.Inst_Frame10_bit29\.Q
*719 Inst_LUT4AB_ConfigMem\.Inst_Frame10_bit3\.Q
*720 Inst_LUT4AB_ConfigMem\.Inst_Frame10_bit30\.Q
*721 Inst_LUT4AB_ConfigMem\.Inst_Frame10_bit31\.Q
*722 Inst_LUT4AB_ConfigMem\.Inst_Frame10_bit4\.Q
*723 Inst_LUT4AB_ConfigMem\.Inst_Frame10_bit5\.Q
*724 Inst_LUT4AB_ConfigMem\.Inst_Frame10_bit6\.Q
*725 Inst_LUT4AB_ConfigMem\.Inst_Frame10_bit7\.Q
*726 Inst_LUT4AB_ConfigMem\.Inst_Frame10_bit8\.Q
*727 Inst_LUT4AB_ConfigMem\.Inst_Frame10_bit9\.Q
*728 Inst_LUT4AB_ConfigMem\.Inst_Frame11_bit0\.Q
*729 Inst_LUT4AB_ConfigMem\.Inst_Frame11_bit1\.Q
*730 Inst_LUT4AB_ConfigMem\.Inst_Frame11_bit10\.Q
*731 Inst_LUT4AB_ConfigMem\.Inst_Frame11_bit11\.Q
*732 Inst_LUT4AB_ConfigMem\.Inst_Frame11_bit12\.Q
*733 Inst_LUT4AB_ConfigMem\.Inst_Frame11_bit13\.Q
*734 Inst_LUT4AB_ConfigMem\.Inst_Frame11_bit14\.Q
*735 Inst_LUT4AB_ConfigMem\.Inst_Frame11_bit2\.Q
*736 Inst_LUT4AB_ConfigMem\.Inst_Frame11_bit22\.Q
*737 Inst_LUT4AB_ConfigMem\.Inst_Frame11_bit23\.Q
*738 Inst_LUT4AB_ConfigMem\.Inst_Frame11_bit24\.Q
*739 Inst_LUT4AB_ConfigMem\.Inst_Frame11_bit25\.Q
*740 Inst_LUT4AB_ConfigMem\.Inst_Frame11_bit26\.Q
*741 Inst_LUT4AB_ConfigMem\.Inst_Frame11_bit27\.Q
*742 Inst_LUT4AB_ConfigMem\.Inst_Frame11_bit28\.Q
*743 Inst_LUT4AB_ConfigMem\.Inst_Frame11_bit29\.Q
*744 Inst_LUT4AB_ConfigMem\.Inst_Frame11_bit3\.Q
*745 Inst_LUT4AB_ConfigMem\.Inst_Frame11_bit30\.Q
*746 Inst_LUT4AB_ConfigMem\.Inst_Frame11_bit31\.Q
*747 Inst_LUT4AB_ConfigMem\.Inst_Frame11_bit4\.Q
*748 Inst_LUT4AB_ConfigMem\.Inst_Frame11_bit5\.Q
*749 Inst_LUT4AB_ConfigMem\.Inst_Frame11_bit6\.Q
*750 Inst_LUT4AB_ConfigMem\.Inst_Frame11_bit7\.Q
*751 Inst_LUT4AB_ConfigMem\.Inst_Frame11_bit8\.Q
*752 Inst_LUT4AB_ConfigMem\.Inst_Frame11_bit9\.Q
*753 Inst_LUT4AB_ConfigMem\.Inst_Frame12_bit0\.Q
*754 Inst_LUT4AB_ConfigMem\.Inst_Frame12_bit1\.Q
*755 Inst_LUT4AB_ConfigMem\.Inst_Frame12_bit2\.Q
*756 Inst_LUT4AB_ConfigMem\.Inst_Frame12_bit20\.Q
*757 Inst_LUT4AB_ConfigMem\.Inst_Frame12_bit21\.Q
*758 Inst_LUT4AB_ConfigMem\.Inst_Frame12_bit22\.Q
*759 Inst_LUT4AB_ConfigMem\.Inst_Frame12_bit23\.Q
*760 Inst_LUT4AB_ConfigMem\.Inst_Frame12_bit24\.Q
*761 Inst_LUT4AB_ConfigMem\.Inst_Frame12_bit25\.Q
*762 Inst_LUT4AB_ConfigMem\.Inst_Frame12_bit26\.Q
*763 Inst_LUT4AB_ConfigMem\.Inst_Frame12_bit27\.Q
*764 Inst_LUT4AB_ConfigMem\.Inst_Frame12_bit28\.Q
*765 Inst_LUT4AB_ConfigMem\.Inst_Frame12_bit29\.Q
*766 Inst_LUT4AB_ConfigMem\.Inst_Frame12_bit3\.Q
*767 Inst_LUT4AB_ConfigMem\.Inst_Frame12_bit30\.Q
*768 Inst_LUT4AB_ConfigMem\.Inst_Frame12_bit31\.Q
*769 Inst_LUT4AB_ConfigMem\.Inst_Frame12_bit4\.Q
*770 Inst_LUT4AB_ConfigMem\.Inst_Frame12_bit5\.Q
*771 Inst_LUT4AB_ConfigMem\.Inst_Frame12_bit6\.Q
*772 Inst_LUT4AB_ConfigMem\.Inst_Frame12_bit7\.Q
*773 Inst_LUT4AB_ConfigMem\.Inst_Frame12_bit8\.Q
*774 Inst_LUT4AB_ConfigMem\.Inst_Frame12_bit9\.Q
*775 Inst_LUT4AB_ConfigMem\.Inst_Frame13_bit0\.Q
*776 Inst_LUT4AB_ConfigMem\.Inst_Frame13_bit1\.Q
*777 Inst_LUT4AB_ConfigMem\.Inst_Frame13_bit10\.Q
*778 Inst_LUT4AB_ConfigMem\.Inst_Frame13_bit11\.Q
*779 Inst_LUT4AB_ConfigMem\.Inst_Frame13_bit2\.Q
*780 Inst_LUT4AB_ConfigMem\.Inst_Frame13_bit20\.Q
*781 Inst_LUT4AB_ConfigMem\.Inst_Frame13_bit21\.Q
*782 Inst_LUT4AB_ConfigMem\.Inst_Frame13_bit22\.Q
*783 Inst_LUT4AB_ConfigMem\.Inst_Frame13_bit23\.Q
*784 Inst_LUT4AB_ConfigMem\.Inst_Frame13_bit24\.Q
*785 Inst_LUT4AB_ConfigMem\.Inst_Frame13_bit25\.Q
*786 Inst_LUT4AB_ConfigMem\.Inst_Frame13_bit26\.Q
*787 Inst_LUT4AB_ConfigMem\.Inst_Frame13_bit27\.Q
*788 Inst_LUT4AB_ConfigMem\.Inst_Frame13_bit28\.Q
*789 Inst_LUT4AB_ConfigMem\.Inst_Frame13_bit29\.Q
*790 Inst_LUT4AB_ConfigMem\.Inst_Frame13_bit3\.Q
*791 Inst_LUT4AB_ConfigMem\.Inst_Frame13_bit30\.Q
*792 Inst_LUT4AB_ConfigMem\.Inst_Frame13_bit31\.Q
*793 Inst_LUT4AB_ConfigMem\.Inst_Frame13_bit4\.Q
*794 Inst_LUT4AB_ConfigMem\.Inst_Frame13_bit5\.Q
*795 Inst_LUT4AB_ConfigMem\.Inst_Frame13_bit6\.Q
*796 Inst_LUT4AB_ConfigMem\.Inst_Frame13_bit7\.Q
*797 Inst_LUT4AB_ConfigMem\.Inst_Frame13_bit8\.Q
*798 Inst_LUT4AB_ConfigMem\.Inst_Frame13_bit9\.Q
*799 Inst_LUT4AB_ConfigMem\.Inst_Frame14_bit0\.Q
*800 Inst_LUT4AB_ConfigMem\.Inst_Frame14_bit1\.Q
*801 Inst_LUT4AB_ConfigMem\.Inst_Frame14_bit10\.Q
*802 Inst_LUT4AB_ConfigMem\.Inst_Frame14_bit11\.Q
*803 Inst_LUT4AB_ConfigMem\.Inst_Frame14_bit12\.Q
*804 Inst_LUT4AB_ConfigMem\.Inst_Frame14_bit13\.Q
*805 Inst_LUT4AB_ConfigMem\.Inst_Frame14_bit14\.Q
*806 Inst_LUT4AB_ConfigMem\.Inst_Frame14_bit2\.Q
*807 Inst_LUT4AB_ConfigMem\.Inst_Frame14_bit23\.Q
*808 Inst_LUT4AB_ConfigMem\.Inst_Frame14_bit24\.Q
*809 Inst_LUT4AB_ConfigMem\.Inst_Frame14_bit25\.Q
*810 Inst_LUT4AB_ConfigMem\.Inst_Frame14_bit26\.Q
*811 Inst_LUT4AB_ConfigMem\.Inst_Frame14_bit27\.Q
*812 Inst_LUT4AB_ConfigMem\.Inst_Frame14_bit28\.Q
*813 Inst_LUT4AB_ConfigMem\.Inst_Frame14_bit29\.Q
*814 Inst_LUT4AB_ConfigMem\.Inst_Frame14_bit3\.Q
*815 Inst_LUT4AB_ConfigMem\.Inst_Frame14_bit30\.Q
*816 Inst_LUT4AB_ConfigMem\.Inst_Frame14_bit31\.Q
*817 Inst_LUT4AB_ConfigMem\.Inst_Frame14_bit4\.Q
*818 Inst_LUT4AB_ConfigMem\.Inst_Frame14_bit5\.Q
*819 Inst_LUT4AB_ConfigMem\.Inst_Frame14_bit6\.Q
*820 Inst_LUT4AB_ConfigMem\.Inst_Frame14_bit7\.Q
*821 Inst_LUT4AB_ConfigMem\.Inst_Frame14_bit8\.Q
*822 Inst_LUT4AB_ConfigMem\.Inst_Frame14_bit9\.Q
*823 Inst_LUT4AB_ConfigMem\.Inst_Frame15_bit0\.Q
*824 Inst_LUT4AB_ConfigMem\.Inst_Frame15_bit1\.Q
*825 Inst_LUT4AB_ConfigMem\.Inst_Frame15_bit2\.Q
*826 Inst_LUT4AB_ConfigMem\.Inst_Frame15_bit26\.Q
*827 Inst_LUT4AB_ConfigMem\.Inst_Frame15_bit27\.Q
*828 Inst_LUT4AB_ConfigMem\.Inst_Frame15_bit28\.Q
*829 Inst_LUT4AB_ConfigMem\.Inst_Frame15_bit29\.Q
*830 Inst_LUT4AB_ConfigMem\.Inst_Frame15_bit3\.Q
*831 Inst_LUT4AB_ConfigMem\.Inst_Frame15_bit30\.Q
*832 Inst_LUT4AB_ConfigMem\.Inst_Frame15_bit31\.Q
*833 Inst_LUT4AB_ConfigMem\.Inst_Frame15_bit4\.Q
*834 Inst_LUT4AB_ConfigMem\.Inst_Frame15_bit5\.Q
*835 Inst_LUT4AB_ConfigMem\.Inst_Frame16_bit0\.Q
*836 Inst_LUT4AB_ConfigMem\.Inst_Frame16_bit1\.Q
*837 Inst_LUT4AB_ConfigMem\.Inst_Frame16_bit30\.Q
*838 Inst_LUT4AB_ConfigMem\.Inst_Frame16_bit31\.Q
*839 Inst_LUT4AB_ConfigMem\.Inst_Frame17_bit0\.Q
*840 Inst_LUT4AB_ConfigMem\.Inst_Frame17_bit1\.Q
*841 Inst_LUT4AB_ConfigMem\.Inst_Frame17_bit2\.Q
*842 Inst_LUT4AB_ConfigMem\.Inst_Frame17_bit30\.Q
*843 Inst_LUT4AB_ConfigMem\.Inst_Frame17_bit31\.Q
*844 Inst_LUT4AB_ConfigMem\.Inst_Frame18_bit0\.Q
*845 Inst_LUT4AB_ConfigMem\.Inst_Frame18_bit1\.Q
*846 Inst_LUT4AB_ConfigMem\.Inst_Frame18_bit2\.Q
*847 Inst_LUT4AB_ConfigMem\.Inst_Frame18_bit30\.Q
*848 Inst_LUT4AB_ConfigMem\.Inst_Frame18_bit31\.Q
*849 Inst_LUT4AB_ConfigMem\.Inst_Frame19_bit10\.Q
*850 Inst_LUT4AB_ConfigMem\.Inst_Frame19_bit11\.Q
*851 Inst_LUT4AB_ConfigMem\.Inst_Frame19_bit12\.Q
*852 Inst_LUT4AB_ConfigMem\.Inst_Frame19_bit13\.Q
*853 Inst_LUT4AB_ConfigMem\.Inst_Frame19_bit14\.Q
*854 Inst_LUT4AB_ConfigMem\.Inst_Frame19_bit15\.Q
*855 Inst_LUT4AB_ConfigMem\.Inst_Frame19_bit16\.Q
*856 Inst_LUT4AB_ConfigMem\.Inst_Frame19_bit17\.Q
*857 Inst_LUT4AB_ConfigMem\.Inst_Frame19_bit18\.Q
*858 Inst_LUT4AB_ConfigMem\.Inst_Frame19_bit19\.Q
*859 Inst_LUT4AB_ConfigMem\.Inst_Frame19_bit2\.Q
*860 Inst_LUT4AB_ConfigMem\.Inst_Frame19_bit20\.Q
*861 Inst_LUT4AB_ConfigMem\.Inst_Frame19_bit21\.Q
*862 Inst_LUT4AB_ConfigMem\.Inst_Frame19_bit22\.Q
*863 Inst_LUT4AB_ConfigMem\.Inst_Frame19_bit23\.Q
*864 Inst_LUT4AB_ConfigMem\.Inst_Frame19_bit24\.Q
*865 Inst_LUT4AB_ConfigMem\.Inst_Frame19_bit25\.Q
*866 Inst_LUT4AB_ConfigMem\.Inst_Frame19_bit3\.Q
*867 Inst_LUT4AB_ConfigMem\.Inst_Frame19_bit4\.Q
*868 Inst_LUT4AB_ConfigMem\.Inst_Frame19_bit5\.Q
*869 Inst_LUT4AB_ConfigMem\.Inst_Frame19_bit6\.Q
*870 Inst_LUT4AB_ConfigMem\.Inst_Frame19_bit7\.Q
*871 Inst_LUT4AB_ConfigMem\.Inst_Frame19_bit8\.Q
*872 Inst_LUT4AB_ConfigMem\.Inst_Frame19_bit9\.Q
*873 Inst_LUT4AB_ConfigMem\.Inst_Frame1_bit10\.Q
*874 Inst_LUT4AB_ConfigMem\.Inst_Frame1_bit11\.Q
*875 Inst_LUT4AB_ConfigMem\.Inst_Frame1_bit12\.Q
*876 Inst_LUT4AB_ConfigMem\.Inst_Frame1_bit13\.Q
*877 Inst_LUT4AB_ConfigMem\.Inst_Frame1_bit14\.Q
*878 Inst_LUT4AB_ConfigMem\.Inst_Frame1_bit15\.Q
*879 Inst_LUT4AB_ConfigMem\.Inst_Frame1_bit16\.Q
*880 Inst_LUT4AB_ConfigMem\.Inst_Frame1_bit17\.Q
*881 Inst_LUT4AB_ConfigMem\.Inst_Frame1_bit18\.Q
*882 Inst_LUT4AB_ConfigMem\.Inst_Frame1_bit19\.Q
*883 Inst_LUT4AB_ConfigMem\.Inst_Frame1_bit2\.Q
*884 Inst_LUT4AB_ConfigMem\.Inst_Frame1_bit20\.Q
*885 Inst_LUT4AB_ConfigMem\.Inst_Frame1_bit21\.Q
*886 Inst_LUT4AB_ConfigMem\.Inst_Frame1_bit22\.Q
*887 Inst_LUT4AB_ConfigMem\.Inst_Frame1_bit23\.Q
*888 Inst_LUT4AB_ConfigMem\.Inst_Frame1_bit24\.Q
*889 Inst_LUT4AB_ConfigMem\.Inst_Frame1_bit25\.Q
*890 Inst_LUT4AB_ConfigMem\.Inst_Frame1_bit26\.Q
*891 Inst_LUT4AB_ConfigMem\.Inst_Frame1_bit27\.Q
*892 Inst_LUT4AB_ConfigMem\.Inst_Frame1_bit28\.Q
*893 Inst_LUT4AB_ConfigMem\.Inst_Frame1_bit29\.Q
*894 Inst_LUT4AB_ConfigMem\.Inst_Frame1_bit3\.Q
*895 Inst_LUT4AB_ConfigMem\.Inst_Frame1_bit30\.Q
*896 Inst_LUT4AB_ConfigMem\.Inst_Frame1_bit31\.Q
*897 Inst_LUT4AB_ConfigMem\.Inst_Frame1_bit4\.Q
*898 Inst_LUT4AB_ConfigMem\.Inst_Frame1_bit5\.Q
*899 Inst_LUT4AB_ConfigMem\.Inst_Frame1_bit7\.Q
*900 Inst_LUT4AB_ConfigMem\.Inst_Frame1_bit8\.Q
*901 Inst_LUT4AB_ConfigMem\.Inst_Frame1_bit9\.Q
*902 Inst_LUT4AB_ConfigMem\.Inst_Frame2_bit1\.Q
*903 Inst_LUT4AB_ConfigMem\.Inst_Frame2_bit10\.Q
*904 Inst_LUT4AB_ConfigMem\.Inst_Frame2_bit11\.Q
*905 Inst_LUT4AB_ConfigMem\.Inst_Frame2_bit12\.Q
*906 Inst_LUT4AB_ConfigMem\.Inst_Frame2_bit13\.Q
*907 Inst_LUT4AB_ConfigMem\.Inst_Frame2_bit14\.Q
*908 Inst_LUT4AB_ConfigMem\.Inst_Frame2_bit15\.Q
*909 Inst_LUT4AB_ConfigMem\.Inst_Frame2_bit16\.Q
*910 Inst_LUT4AB_ConfigMem\.Inst_Frame2_bit17\.Q
*911 Inst_LUT4AB_ConfigMem\.Inst_Frame2_bit18\.Q
*912 Inst_LUT4AB_ConfigMem\.Inst_Frame2_bit19\.Q
*913 Inst_LUT4AB_ConfigMem\.Inst_Frame2_bit20\.Q
*914 Inst_LUT4AB_ConfigMem\.Inst_Frame2_bit21\.Q
*915 Inst_LUT4AB_ConfigMem\.Inst_Frame2_bit22\.Q
*916 Inst_LUT4AB_ConfigMem\.Inst_Frame2_bit23\.Q
*917 Inst_LUT4AB_ConfigMem\.Inst_Frame2_bit24\.Q
*918 Inst_LUT4AB_ConfigMem\.Inst_Frame2_bit25\.Q